CPDS_validation_cosim/Distribution/Bus11/DSSfiles/ieee13nodeckt_VLN_Node.Txt

LINE-GROUND and LINE-LINE VOLTAGES BY BUS & NODE

Bus       Node    VLN (kV)   Angle      pu     Base kV    Node-Node   VLL (kV)  Angle      pu

SOURCEBUS 1       66.391 /_   30.0   0.99994   115.000
RG60 .... 1       2.2979 /_   27.3   0.95674     4.160
632 ..... 1       2.1981 /_   25.2   0.91519     4.160
670 ..... 1       2.1735 /_   24.7   0.90497     4.160
671 ..... 1       2.1288 /_   23.6   0.88633     4.160
680 ..... 1       2.1288 /_   23.6   0.88633     4.160
633 ..... 1       2.1922 /_   25.2   0.91273     4.160
645 ..... 1       2.1896 /_   25.2   0.91166     4.160
646 ..... 1       2.1869 /_   25.2   0.91054     4.160
692 ..... 1       2.1286 /_   23.6   0.88624     4.160
675 ..... 1       2.1209 /_   23.5   0.88307     4.160
684 ..... 1       2.1253 /_   23.6   0.88489     4.160
611 ..... 1       2.1229 /_   23.5   0.88388     4.160
652 ..... 1       2.1213 /_   23.6   0.88322     4.160
634 ..... 1      0.24737 /_   24.6   0.89262     0.480
650 ..... 1       2.2981 /_   27.3   0.95685     4.160
