CPDS_validation_cosim/Distribution/Bus11/DSSfiles/ieee13nodecktpositive_Curr_Elem.Txt

CIRCUIT ELEMENT CURRENTS

(Currents into element from indicated bus)

Power Delivery Elements

  Bus     Phase    Magnitude, A     Angle      (Real)   +j  (Imag)

ELEMENT = "Vsource.SOURCE"
SOURCEBUS     1           19.823 /_ -175.9 =    -19.771 +j   -1.4283
------------
SOURCEBUS     0           19.823 /_    4.1 =     19.771 +j    1.4283

ELEMENT = "Line.650632"
RG60          1           528.16 /_    4.1 =     526.79 +j    38.059
------------
632           1           528.16 /_ -175.9 =    -526.79 +j   -38.058

ELEMENT = "Line.632670"
632           1           395.62 /_    7.9 =     391.87 +j    54.369
------------
670           1           395.62 /_ -172.1 =    -391.87 +j   -54.369

ELEMENT = "Line.670671"
670           1           363.98 /_    8.9 =     359.64 +j    55.999
------------
671           1           363.98 /_ -171.1 =    -359.64 +j   -55.998

ELEMENT = "Line.671680"
671           1       0.00050458 /_  116.1 =  -0.00022185 +j 0.00045319
------------
680           1      2.5724E-012 /_ -135.0 =  -1.819E-012 +j -1.819E-012

ELEMENT = "Line.632633"
632           1           70.051 /_   -8.7 =      69.24 +j   -10.634
------------
633           1           70.052 /_  171.3 =     -69.24 +j    10.635

ELEMENT = "Line.632645"
632           1            65.93 /_   -4.9 =     65.685 +j    -5.677
------------
645           1            65.93 /_  175.1 =    -65.686 +j    5.6774

ELEMENT = "Line.645646"
645           1           36.708 /_   -2.1 =     36.684 +j   -1.3255
------------
646           1           36.708 /_  177.9 =    -36.684 +j    1.3258

ELEMENT = "Line.692675"
692           1           120.62 /_   33.6 =     100.49 +j    66.706
------------
675           1           120.61 /_ -146.4 =    -100.51 +j   -66.677

ELEMENT = "Line.671684"
671           1           42.026 /_   13.4 =     40.875 +j    9.7667
------------
684           1           42.026 /_ -166.6 =    -40.875 +j   -9.7665

ELEMENT = "Line.684611"
684           1           23.743 /_   32.0 =      20.13 +j    12.591
------------
611           1           23.743 /_ -148.0 =     -20.13 +j   -12.591

ELEMENT = "Line.684652"
684           1           20.937 /_   -7.8 =     20.745 +j   -2.8244
------------
652           1           20.954 /_  172.2 =    -20.759 +j    2.8529

ELEMENT = "Line.671692"
671           1           143.28 /_   24.0 =      130.9 +j    58.255
------------
692           1           143.28 /_ -156.0 =     -130.9 +j   -58.255

ELEMENT = "Transformer.SUB"
SOURCEBUS     1           19.823 /_    4.1 =     19.771 +j    1.4283
SOURCEBUS     0           19.823 /_ -175.9 =    -19.771 +j   -1.4283
------------
650           1           547.97 /_ -175.9 =    -546.55 +j   -39.485
650           0           547.97 /_    4.1 =     546.55 +j    39.485

ELEMENT = "Transformer.REG1"
650           1           547.97 /_    4.1 =     546.55 +j    39.485
650           0           547.97 /_ -175.9 =    -546.55 +j   -39.485
------------
RG60          1           528.16 /_ -175.9 =    -526.79 +j   -38.059
RG60          0           528.16 /_    4.1 =     526.79 +j    38.058

ELEMENT = "Transformer.XFM1"
633           1           70.052 /_   -8.7 =      69.24 +j   -10.635
633           0           70.052 /_  171.3 =     -69.24 +j    10.635
------------
634           1           607.12 /_  171.3 =    -600.08 +j    92.166
634           0           607.12 /_   -8.7 =     600.08 +j   -92.166

ELEMENT = "Capacitor.CAP1"
675           1           81.496 /_  115.9 =    -35.659 +j     73.28
------------
675           0           81.496 /_  -64.1 =     35.659 +j    -73.28

ELEMENT = "Capacitor.CAP2"
611           1           13.605 /_  116.0 =    -5.9634 +j    12.228
------------
611           0           13.605 /_  -64.0 =     5.9634 +j   -12.228

= = = = = = = = = = = = = = = = = = =  = = = = = = = = = = =  = =

Power Conversion Elements

  Bus     Phase    Magnitude, A     Angle      (Real)   +j  (Imag)

ELEMENT = "Load.671"
671           1           188.25 /_   -3.7 =     187.86 +j   -12.027
671           0           188.25 /_  176.3 =    -187.86 +j    12.027

ELEMENT = "Load.634A"
634           1           238.59 /_   -7.3 =     236.65 +j   -30.313
634           0           238.59 /_  172.7 =    -236.65 +j    30.313

ELEMENT = "Load.634B"
634           1           184.32 /_   -9.7 =     181.71 +j   -30.929
634           0           184.32 /_  170.3 =    -181.71 +j    30.929

ELEMENT = "Load.634C"
634           1           184.32 /_   -9.7 =     181.71 +j   -30.929
634           0           184.32 /_  170.3 =    -181.71 +j    30.929

ELEMENT = "Load.645"
645           1           29.326 /_   -8.5 =     29.001 +j   -4.3521
645           0           29.326 /_  171.5 =    -29.001 +j    4.3521

ELEMENT = "Load.646"
646           1           36.707 /_   -2.1 =     36.684 +j   -1.3261
646           0           36.707 /_  177.9 =    -36.684 +j    1.3261

ELEMENT = "Load.692"
692           1           31.557 /_  -15.5 =     30.404 +j   -8.4511
692           0           31.557 /_  164.5 =    -30.404 +j    8.4511

ELEMENT = "Load.675A"
675           1           73.869 /_    4.6 =     73.636 +j    5.8661
675           0           73.869 /_ -175.4 =    -73.636 +j   -5.8661

ELEMENT = "Load.675B"
675           1            12.86 /_  -15.5 =     12.394 +j   -3.4316
675           0            12.86 /_  164.5 =    -12.394 +j    3.4316

ELEMENT = "Load.675C"
675           1           50.943 /_  -10.2 =     50.134 +j   -9.0395
675           0           50.943 /_  169.8 =    -50.134 +j    9.0395

ELEMENT = "Load.611"
611           1           26.095 /_    0.8 =     26.093 +j   0.36228
611           0           26.095 /_ -179.2 =    -26.093 +j  -0.36228

ELEMENT = "Load.652"
652           1           20.954 /_   -7.8 =     20.759 +j   -2.8532
652           0           20.954 /_  172.2 =    -20.759 +j    2.8532

ELEMENT = "Load.670A"
670           1           2.7524 /_   -3.2 =      2.748 +j  -0.15595
670           0           2.7524 /_  176.8 =     -2.748 +j   0.15595

ELEMENT = "Load.670B"
670           1           10.628 /_   -2.7 =     10.616 +j  -0.50344
670           0           10.628 /_  177.3 =    -10.616 +j   0.50344

ELEMENT = "Load.670C"
670           1           18.885 /_   -2.9 =      18.86 +j  -0.97134
670           0           18.885 /_  177.1 =     -18.86 +j   0.97134

